site1554


  5  4  0  0  0  0  0  0  0  0999 V2000
    5.8167    0.4799   -7.3189 O   0  0  0  0  0  0  0  0  0  0  0  0
    5.6651    2.7549   -7.4441 O   0  0  0  0  0  0  0  0  0  0  0  0
    5.2548    1.5702   -7.6136 C   0  0  0  0  0  0  0  0  0  0  0  0
    3.8768    1.4756   -8.2743 C   0  0  0  0  0  0  0  0  0  0  0  0
    3.2791    0.0832   -8.3335 C   0  0  0  0  0  0  0  0  0  0  0  0
  1  3  2  0  0  0
  2  3  2  0  0  0
  4  5  1  0  0  0
  4  3  1  0  0  0
M  END
> <minimizedAffinity>
-3.35503

> <CNNscore>
0.8971109390

> <CNNaffinity>
3.3277411461

> <CNN_VS>
2.9853529930

> <CNNaffinity_variance>
0.3445821404

$$$$
site1554


  5  4  0  0  0  0  0  0  0  0999 V2000
    5.2686    3.0883   -7.2250 O   0  0  0  0  0  0  0  0  0  0  0  0
    5.8575    0.8889   -7.3988 O   0  0  0  0  0  0  0  0  0  0  0  0
    5.1090    1.8910   -7.5889 C   0  0  0  0  0  0  0  0  0  0  0  0
    3.8329    1.5767   -8.3746 C   0  0  0  0  0  0  0  0  0  0  0  0
    3.3653    0.1360   -8.3044 C   0  0  0  0  0  0  0  0  0  0  0  0
  1  3  2  0  0  0
  2  3  2  0  0  0
  4  5  1  0  0  0
  4  3  1  0  0  0
M  END
> <minimizedAffinity>
-3.42633

> <CNNscore>
0.8878579736

> <CNNaffinity>
3.3062872887

> <CNN_VS>
2.9355134964

> <CNNaffinity_variance>
0.3403746486

$$$$
site1554


  5  4  0  0  0  0  0  0  0  0999 V2000
    6.1403    0.1290   -7.2293 O   0  0  0  0  0  0  0  0  0  0  0  0
    4.5081   -1.2164   -6.3689 O   0  0  0  0  0  0  0  0  0  0  0  0
    4.9551   -0.2818   -7.0952 C   0  0  0  0  0  0  0  0  0  0  0  0
    3.8821    0.4371   -7.9175 C   0  0  0  0  0  0  0  0  0  0  0  0
    4.2293    1.8502   -8.3443 C   0  0  0  0  0  0  0  0  0  0  0  0
  1  3  2  0  0  0
  2  3  2  0  0  0
  4  5  1  0  0  0
  4  3  1  0  0  0
M  END
> <minimizedAffinity>
-3.09767

> <CNNscore>
0.8511749506

> <CNNaffinity>
3.1734375954

> <CNN_VS>
2.7011506557

> <CNNaffinity_variance>
0.3948553205

$$$$
site1554


  5  4  0  0  0  0  0  0  0  0999 V2000
    5.4316   -1.8024   -6.4958 O   0  0  0  0  0  0  0  0  0  0  0  0
    6.1069    0.2394   -7.2634 O   0  0  0  0  0  0  0  0  0  0  0  0
    5.2520   -0.6322   -6.9314 C   0  0  0  0  0  0  0  0  0  0  0  0
    3.7996   -0.1751   -7.0925 C   0  0  0  0  0  0  0  0  0  0  0  0
    3.5417    0.7737   -8.2468 C   0  0  0  0  0  0  0  0  0  0  0  0
  1  3  2  0  0  0
  2  3  2  0  0  0
  4  5  1  0  0  0
  4  3  1  0  0  0
M  END
> <minimizedAffinity>
-2.99467

> <CNNscore>
0.8435832858

> <CNNaffinity>
3.1367373466

> <CNN_VS>
2.6460990906

> <CNNaffinity_variance>
0.2983748913

$$$$
site1554


  5  4  0  0  0  0  0  0  0  0999 V2000
    5.8582    0.8418   -7.4152 O   0  0  0  0  0  0  0  0  0  0  0  0
    4.2331    2.0935   -8.4186 O   0  0  0  0  0  0  0  0  0  0  0  0
    4.6817    1.0850   -7.8002 C   0  0  0  0  0  0  0  0  0  0  0  0
    3.6240    0.0227   -7.4884 C   0  0  0  0  0  0  0  0  0  0  0  0
    3.8430   -0.7547   -6.2051 C   0  0  0  0  0  0  0  0  0  0  0  0
  1  3  2  0  0  0
  2  3  2  0  0  0
  4  5  1  0  0  0
  4  3  1  0  0  0
M  END
> <minimizedAffinity>
-3.16109

> <CNNscore>
0.8159069419

> <CNNaffinity>
3.1452941895

> <CNN_VS>
2.5662672520

> <CNNaffinity_variance>
0.3022596836

$$$$
site1554


  5  4  0  0  0  0  0  0  0  0999 V2000
    5.8146    0.6125   -7.3590 O   0  0  0  0  0  0  0  0  0  0  0  0
    7.3406   -1.0668   -7.1027 O   0  0  0  0  0  0  0  0  0  0  0  0
    6.1810   -0.5613   -7.0775 C   0  0  0  0  0  0  0  0  0  0  0  0
    5.0849   -1.5356   -6.6375 C   0  0  0  0  0  0  0  0  0  0  0  0
    3.8935   -0.9030   -5.9449 C   0  0  0  0  0  0  0  0  0  0  0  0
  1  3  2  0  0  0
  2  3  2  0  0  0
  4  5  1  0  0  0
  4  3  1  0  0  0
M  END
> <minimizedAffinity>
-2.80244

> <CNNscore>
0.7825847864

> <CNNaffinity>
3.0094714165

> <CNN_VS>
2.3551664352

> <CNNaffinity_variance>
0.2819106281

$$$$
site1554


  5  4  0  0  0  0  0  0  0  0999 V2000
    1.1783    1.5927   -8.4409 O   0  0  0  0  0  0  0  0  0  0  0  0
   -0.0620    3.3160   -9.2814 O   0  0  0  0  0  0  0  0  0  0  0  0
    0.1652    2.3415   -8.5071 C   0  0  0  0  0  0  0  0  0  0  0  0
   -0.9689    2.0509   -7.5203 C   0  0  0  0  0  0  0  0  0  0  0  0
   -0.8486    2.7356   -6.1727 C   0  0  0  0  0  0  0  0  0  0  0  0
  1  3  2  0  0  0
  2  3  2  0  0  0
  4  5  1  0  0  0
  4  3  1  0  0  0
M  END
> <minimizedAffinity>
1.25623

> <CNNscore>
0.7163803577

> <CNNaffinity>
3.3131012917

> <CNN_VS>
2.3734407425

> <CNNaffinity_variance>
0.4966409206

$$$$
site1554


  5  4  0  0  0  0  0  0  0  0999 V2000
    3.5008    0.3150   -8.0397 O   0  0  0  0  0  0  0  0  0  0  0  0
    5.5867    1.0756   -7.5059 O   0  0  0  0  0  0  0  0  0  0  0  0
    4.6127    0.2703   -7.4456 C   0  0  0  0  0  0  0  0  0  0  0  0
    4.8434   -0.9190   -6.5093 C   0  0  0  0  0  0  0  0  0  0  0  0
    3.6449   -1.3328   -5.6777 C   0  0  0  0  0  0  0  0  0  0  0  0
  1  3  2  0  0  0
  2  3  2  0  0  0
  4  5  1  0  0  0
  4  3  1  0  0  0
M  END
> <minimizedAffinity>
-2.86508

> <CNNscore>
0.7110853791

> <CNNaffinity>
2.9952163696

> <CNN_VS>
2.1298546791

> <CNNaffinity_variance>
0.3172754347

$$$$
site1554


  5  4  0  0  0  0  0  0  0  0999 V2000
    3.6624   -1.7240   -5.7066 O   0  0  0  0  0  0  0  0  0  0  0  0
    3.2980    0.3687   -4.8686 O   0  0  0  0  0  0  0  0  0  0  0  0
    3.6943   -0.4632   -5.7355 C   0  0  0  0  0  0  0  0  0  0  0  0
    4.2952    0.1796   -6.9885 C   0  0  0  0  0  0  0  0  0  0  0  0
    3.3433    0.3362   -8.1583 C   0  0  0  0  0  0  0  0  0  0  0  0
  1  3  2  0  0  0
  2  3  2  0  0  0
  4  5  1  0  0  0
  4  3  1  0  0  0
M  END
> <minimizedAffinity>
-3.06320

> <CNNscore>
0.6441907883

> <CNNaffinity>
2.9176979065

> <CNN_VS>
1.8795541525

> <CNNaffinity_variance>
0.4651867747

$$$$
site1554


  5  4  0  0  0  0  0  0  0  0999 V2000
    3.3242    0.4092   -4.9208 O   0  0  0  0  0  0  0  0  0  0  0  0
    3.4075   -1.7861   -5.5442 O   0  0  0  0  0  0  0  0  0  0  0  0
    3.6072   -0.5458   -5.6950 C   0  0  0  0  0  0  0  0  0  0  0  0
    4.2904   -0.1797   -7.0155 C   0  0  0  0  0  0  0  0  0  0  0  0
    3.3660    0.3226   -8.1075 C   0  0  0  0  0  0  0  0  0  0  0  0
  1  3  2  0  0  0
  2  3  2  0  0  0
  4  5  1  0  0  0
  4  3  1  0  0  0
M  END
> <minimizedAffinity>
-3.05054

> <CNNscore>
0.6312385798

> <CNNaffinity>
2.8995406628

> <CNN_VS>
1.8303018808

> <CNNaffinity_variance>
0.4576344490

$$$$
