### 
### Created by X-TOOL on Thu Jul 27 10:42:41 2023
### 

@<TRIPOS>MOLECULE
site133
   10     9     1     0     0
SMALL
USER_CHARGES


@<TRIPOS>ATOM
      1 O1         10.2089    1.5306   -2.1221 O.2       1 SUB1        0.773
      2 O2          8.8057    2.4532   -0.5746 O.2       1 SUB1        0.789
      3 C1          8.4400    2.9519   -2.8422 C.3       1 SUB1        0.870
      4 C2          7.2454    3.7529   -2.3620 C.3       1 SUB1        1.016
      5 C3          9.2347    2.2381   -1.7453 C.2       1 SUB1        0.767
      6 H1          9.1286    3.6174   -3.3758 H         1 SUB1        0.000
      7 H2          8.0991    2.1937   -3.5571 H         1 SUB1        0.000
      8 H3          6.5231    3.1140   -1.8432 H         1 SUB1        0.000
      9 H4          7.5521    4.5480   -1.6745 H         1 SUB1        0.000
     10 H5          6.7356    4.2192   -3.2110 H         1 SUB1        0.000
@<TRIPOS>BOND
     1    1    5 2  
     2    2    5 2  
     3    3    4 1  
     4    3    5 1  
     5    3    6 1  
     6    3    7 1  
     7    4    8 1  
     8    4    9 1  
     9    4   10 1  
@<TRIPOS>SUBSTRUCTURE
     1 SUB1        1 GROUP

