### 
### Created by X-TOOL on Mon Aug  7 16:52:37 2023
### 

@<TRIPOS>MOLECULE
site11959
   10     9     1     0     0
SMALL
USER_CHARGES


@<TRIPOS>ATOM
      1 O1         10.2822    3.6055   -2.2174 O.2       1 SUB1        0.863
      2 O2          8.5826    2.7374   -0.9634 O.2       1 SUB1        0.774
      3 C1         10.6997    2.9548    0.0343 C.3       1 SUB1        0.852
      4 C2         10.0437    2.4155    1.2905 C.3       1 SUB1        1.001
      5 C3          9.7708    3.1192   -1.1717 C.2       1 SUB1        0.768
      6 H1         11.5167    2.2860   -0.2606 H         1 SUB1        0.000
      7 H2         11.1420    3.9339    0.2531 H         1 SUB1        0.000
      8 H3          9.2355    3.0726    1.6284 H         1 SUB1        0.000
      9 H4          9.6236    1.4186    1.1214 H         1 SUB1        0.000
     10 H5         10.7778    2.3394    2.0989 H         1 SUB1        0.000
@<TRIPOS>BOND
     1    1    5 2  
     2    2    5 2  
     3    3    4 1  
     4    3    5 1  
     5    3    6 1  
     6    3    7 1  
     7    4    8 1  
     8    4    9 1  
     9    4   10 1  
@<TRIPOS>SUBSTRUCTURE
     1 SUB1        1 GROUP

