### 
### Created by X-TOOL on Wed Jul 26 17:14:23 2023
### 

@<TRIPOS>MOLECULE
site1661
   34    34     1     0     0
SMALL
USER_CHARGES


@<TRIPOS>ATOM
      1 O          -1.1509   -0.5340  -11.4575 O.2       1 SUB1        0.341
      2 C          -0.1333    4.2965  -10.0873 C.3       1 SUB1        0.373
      3 C           0.7176    5.5737   -9.8472 C.3       1 SUB1        0.471
      4 C           1.1928    6.2003  -11.1457 C.3       1 SUB1        0.470
      5 C           0.5056    3.3796  -11.1569 C.2       1 SUB1        0.340
      6 C           2.0583    5.2133  -11.9144 C.3       1 SUB1        0.422
      7 C           1.5155    3.7993  -11.9600 C.2       1 SUB1        0.358
      8 C          -1.5497    4.7147  -10.5445 C.3       1 SUB1        0.497
      9 C          -0.2474    3.5953   -8.7115 C.3       1 SUB1        0.523
     10 C          -0.0642    2.0464  -11.2636 C.2       1 SUB1        0.356
     11 C           2.2316    2.9573  -12.9908 C.3       1 SUB1        0.493
     12 C          -0.2807    1.4571  -12.4353 C.2       1 SUB1        0.378
     13 C          -0.8675    0.0888  -12.4784 C.2       1 SUB1        0.359
     14 C          -1.0841   -0.5153  -13.8410 C.3       1 SUB1        0.564
     15 H           1.5979    5.3283   -9.2365 H         1 SUB1        0.000
     16 H           0.1449    6.3141   -9.2742 H         1 SUB1        0.000
     17 H           1.7702    7.1078  -10.9351 H         1 SUB1        0.000
     18 H           0.3387    6.5097  -11.7590 H         1 SUB1        0.000
     19 H           3.0577    5.1821  -11.4615 H         1 SUB1        0.000
     20 H           2.1833    5.5946  -12.9357 H         1 SUB1        0.000
     21 H          -1.5367    5.1878  -11.5323 H         1 SUB1        0.000
     22 H          -2.2222    3.8510  -10.6071 H         1 SUB1        0.000
     23 H          -1.9995    5.4236   -9.8398 H         1 SUB1        0.000
     24 H          -0.5486    4.3079   -7.9339 H         1 SUB1        0.000
     25 H          -1.0014    2.8009   -8.7105 H         1 SUB1        0.000
     26 H           0.7102    3.1576   -8.4064 H         1 SUB1        0.000
     27 H          -0.2770    1.5213  -10.3392 H         1 SUB1        0.000
     28 H           1.8140    3.1285  -13.9876 H         1 SUB1        0.000
     29 H           2.2293    1.8886  -12.7621 H         1 SUB1        0.000
     30 H           3.2922    3.2350  -13.0264 H         1 SUB1        0.000
     31 H          -0.1205    1.9424  -13.3903 H         1 SUB1        0.000
     32 H          -2.0701   -0.9874  -13.8706 H         1 SUB1        0.000
     33 H          -1.0530    0.2457  -14.6254 H         1 SUB1        0.000
     34 H          -0.3076   -1.2602  -14.0324 H         1 SUB1        0.000
@<TRIPOS>BOND
     1    1   13 2  
     2    2    3 1  
     3    2    5 1  
     4    2    8 1  
     5    2    9 1  
     6    3    4 1  
     7    3   15 1  
     8    3   16 1  
     9    4    6 1  
    10    4   17 1  
    11    4   18 1  
    12    5    7 2  
    13    5   10 1  
    14    6    7 1  
    15    6   19 1  
    16    6   20 1  
    17    7   11 1  
    18    8   21 1  
    19    8   22 1  
    20    8   23 1  
    21    9   24 1  
    22    9   25 1  
    23    9   26 1  
    24   10   12 2  
    25   10   27 1  
    26   11   28 1  
    27   11   29 1  
    28   11   30 1  
    29   12   13 1  
    30   12   31 1  
    31   13   14 1  
    32   14   32 1  
    33   14   33 1  
    34   14   34 1  
@<TRIPOS>SUBSTRUCTURE
     1 SUB1        1 GROUP

