### 
### Created by X-TOOL on Thu Jul 27 16:17:57 2023
### 

@<TRIPOS>MOLECULE
site1554
   10     9     1     0     0
SMALL
USER_CHARGES


@<TRIPOS>ATOM
      1 O1          4.5391   -1.3404   -1.8367 O.2       1 SUB1        0.767
      2 O2          3.0155   -0.2189   -3.1155 O.2       1 SUB1        0.851
      3 C1          4.2264   -1.9701   -4.1112 C.3       1 SUB1        0.825
      4 C2          3.4073   -1.6850   -5.3550 C.3       1 SUB1        0.997
      5 C3          3.9011   -1.0957   -2.8971 C.2       1 SUB1        0.744
      6 H1          5.2899   -1.8396   -4.3428 H         1 SUB1        0.000
      7 H2          4.0819   -3.0170   -3.8191 H         1 SUB1        0.000
      8 H3          2.3382   -1.8286   -5.1665 H         1 SUB1        0.000
      9 H4          3.5570   -0.6570   -5.7009 H         1 SUB1        0.000
     10 H5          3.7012   -2.3597   -6.1653 H         1 SUB1        0.000
@<TRIPOS>BOND
     1    1    5 2  
     2    2    5 2  
     3    3    4 1  
     4    3    5 1  
     5    3    6 1  
     6    3    7 1  
     7    4    8 1  
     8    4    9 1  
     9    4   10 1  
@<TRIPOS>SUBSTRUCTURE
     1 SUB1        1 GROUP

